/*--------------------------------*- C++ -*----------------------------------*\
| =========                 |                                                 |
| \\      /  F ield         | OpenFOAM: The Open Source CFD Toolbox           |
|  \\    /   O peration     | Version:  2.3.0                                 |
|   \\  /    A nd           | Web:      www.OpenFOAM.org                      |
|    \\/     M anipulation  |                                                 |
\*---------------------------------------------------------------------------*/
FoamFile
{
    version     4.1;
    format      ascii;
    class       dictionary;
    location    "constant";
    object      thermophysicalProperties;
}
// * * * * * * * * * * * * * * * * * * * * * * * * * * * * * * * * * * * * * //


thermoType
{
    type            heRDEThermo;
    mixture         RDEMixtureNikolaev;
    transport       const;
    thermo          RDEThermo;
    equationOfState perfectGas;
    specie          RDEspecie;
    energy          absoluteEnthalpy;
}

species
(
    CO
    H2
    O2
    N2
    Ar
    H2O
    CO2
    OH
);
// параметры термодинамики
thermo
{
    powerN 1.0;
    //theta 3500;
    beta 1.5;
    StartInduction 900.0;
    CompareWeight -10.0;
}

// Параметры Чепмена-Жуге
CJ
{
    D 1791.42;           // Скорость детонации Чепмена-Жуге[m/c]
    P 1.55301e06;
    T 2875.44;
    Rho 1.82895;
}

// Энергия диссоциации веществ в Дж/моль
CO
{
    specie
    {
        moles 1.0;              // Количество молей
        atoms 2;                // Количество атомов, из которых состоит эта смесь
        decomposition 1;        // На сколько атомов разлагается данный компонент
        molWeight 20.0;         // Молекулярная масса
        needO 1;                // Количество атомов кислорода, необходимых для полного сжигания этой молекулы
        Edissociation 0.0;
        Einduction 125531.0;    // Энергия активации [Дж/моль]
        Kinduction 1.38e-8;     // Константа активации в моль*с/м3
        theta 3000;             // Температура возбуждения колебательных степеней свободы
    }
    transport
    {
        mu 1.8e-05;
        Pr 0.7;
    }
}


H2
{
    specie
    {
        moles 1.0;
        atoms 2;
        decomposition 2;
        molWeight 2.0;
        needO 1;
        Edissociation -432345.7152;
        Einduction 71803.62;    // Энергия активации [Дж/моль]
        Kinduction 5.38e-8;     // Константа активации в моль*с/м3
        theta 3000;             // Температура возбуждения колебательных степеней свободы
    }
    transport
    {
        mu 1.8e-05;
        Pr 0.7;
    }
}

O2
{
    specie
    {
        moles 1.0;
        atoms 2;
        decomposition 2;
        molWeight 32.0;
        needO 0;
	    Edissociation -493929.3564;
        Einduction 0.0;    // Энергия активации [Дж/моль]
        Kinduction 0.0;     // Константа активации в моль*с/м3
        InductionPower 1.0;     // Показатель степени в концентрации(для задержек воспламенения)
        theta 1500;             // Температура возбуждения колебательных степеней свободы
    }
    transport
    {
        mu 1.8e-05;
        Pr 0.7;
    }
}

N2
{
    specie
    {
        moles 3.7275;
        atoms 2;
        decomposition 1;
        molWeight 28.0;
        needO 0;
        Edissociation 0.0;
        Einduction 0.0;    // Энергия активации [Дж/моль]
        Kinduction 0.0;     // Константа активации в моль*с/м3
        theta 3000;             // Температура возбуждения колебательных степеней свободы
    }
    transport
    {
        mu 1.8e-05;
        Pr 0.7;
    }
}

Ar
{
    specie
    {
        moles 0.0445;
        atoms 1;
        decomposition 1;
        molWeight 40.0;
        needO 0;
        Edissociation 0.0;
        Einduction 0.0;    // Энергия активации [Дж/моль]
        Kinduction 0.0;     // Константа активации в моль*с/м3
        theta 0;             // Температура возбуждения колебательных степеней свободы
    }
    transport
    {
        mu 1.8e-05;
        Pr 0.7;
    }
}

H2O
{
    specie
    {
        moles 0.0;
        atoms 3;
        decomposition 3;
        molWeight 36.0;
        needO 0;
        Edissociation -918420.6;
        Einduction 0.0;    // Энергия активации [Дж/моль]
        Kinduction 0.0;     // Константа активации в моль*с/м3
        theta 3500;             // Температура возбуждения колебательных степеней свободы
    }
    transport
    {
        mu 1.8e-05;
        Pr 0.7;
    }
}

CO2
{
    specie
    {
        moles 0.0;
        atoms 3;
        decomposition 2;
        molWeight 44.0;
        needO 0;
        Edissociation -526502.6604;
        Einduction 0.0;    // Энергия активации [Дж/моль]
        Kinduction 0.0;     // Константа активации в моль*с/м3
        theta 1500;             // Температура возбуждения колебательных степеней свободы
    }
    transport
    {
        mu 1.8e-05;
        Pr 0.7;
    }
}

OH
{
    specie
    {
        moles 0.0;
        atoms 2;
        decomposition 2;
        molWeight 17.0;
        needO 0;
        Edissociation -424374.048;
        Einduction 0.0;    // Энергия активации [Дж/моль]
        Kinduction 0.0;     // Константа активации в моль*с/м3
        theta 3000;             // Температура возбуждения колебательных степеней свободы
    }
    transport
    {
        mu 1.8e-05;
        Pr 0.7;
    }
}

