/*--------------------------------*- C++ -*----------------------------------*\
| =========                 |                                                 |
| \\      /  F ield         | OpenFOAM: The Open Source CFD Toolbox           |
|  \\    /   O peration     | Version:  5                                     |
|   \\  /    A nd           | Web:      www.OpenFOAM.org                      |
|    \\/     M anipulation  |                                                 |
\*---------------------------------------------------------------------------*/
FoamFile
{
    version     2.0;
    format      ascii;
    class       dictionary;
    location    "system";
    object      setFieldsDict;
}
// * * * * * * * * * * * * * * * * * * * * * * * * * * * * * * * * * * * * * //

defaultFieldValues
(
    volVectorFieldValue U (0.0 0.0 0.0)
    volScalarFieldValue T 300.0
    volScalarFieldValue p 101325.0
);

regions
(
    boxToCell
    {
        box (0.0 0.0 0.5985) (0.088907 0.010 0.665);
        fieldValues
        (
            volScalarFieldValue T 3000.0
            volScalarFieldValue p 2026500.0
        );
    }
);


// ************************************************************************* //
