/*--------------------------------*- C++ -*----------------------------------*\
| =========                 |                                                 |
| \\      /  F ield         | OpenFOAM: The Open Source CFD Toolbox           |
|  \\    /   O peration     | Version:  5                                     |
|   \\  /    A nd           | Web:      www.OpenFOAM.org                      |
|    \\/     M anipulation  |                                                 |
\*---------------------------------------------------------------------------*/
FoamFile
{
    version     2.0;
    format      ascii;
    class       dictionary;
    location    "system";
    object      setFieldsDict;
}
// * * * * * * * * * * * * * * * * * * * * * * * * * * * * * * * * * * * * * //

defaultFieldValues
(
    volVectorFieldValue U (0.0 0.0 0.0)
    volScalarFieldValue T 300.0
    volScalarFieldValue p 101325.0
    volScalarFieldValue Induction 1.0
);
// 1/sqrt(2) - 0.707106781187;

regions
(
    boxToCell
    {
        box (-0.252 0.100 0.400) (0.0 0.252 0.500);
        fieldValues
        (
            volScalarFieldValue T 3000.0
            volScalarFieldValue p 5066250.0
        );
    }
);


// ************************************************************************* //
